<?xml version="1.0" encoding="UTF-8"?>

<!-- generated on Tue Feb 18 17:48:56 2014 by SUMO netconvert Version 0.17.1
<?xml version="1.0" encoding="UTF-8"?>

<configuration xmlns:xsi="http://www.w3.org/2001/XMLSchema-instance" xsi:noNamespaceSchemaLocation="http://sumo.sf.net/xsd/netconvertConfiguration.xsd">

    <input>
        <sumo-net-file value="san_fran.net.xml"/>
    </input>

    <output>
        <plain-output-prefix value="san_fran"/>
    </output>

    <processing>
        <no-turnarounds value="true"/>
        <offset.disable-normalization value="true"/>
    </processing>

</configuration>
-->

<nodes version="0.13" xmlns:xsi="http://www.w3.org/2001/XMLSchema-instance" xsi:noNamespaceSchemaLocation="http://sumo.sf.net/xsd/nodes_file.xsd">
    <location netOffset="-542829.78,-4172474.35" convBoundary="0.00,0.00,16249.97,13023.08" origBoundary="-122.514432,37.698404,-122.328810,37.815197" projParameter="+proj=utm +zone=10 +ellps=WGS84 +datum=WGS84 +units=m +no_defs"/>

    <node id="1012942358" x="1769.22" y="3716.06" type="priority"/>
    <node id="1012942397" x="2542.93" y="1747.71" type="priority"/>
    <node id="1014306684" x="3220.70" y="7451.37" type="priority"/>
    <node id="1014306694" x="3221.27" y="7441.34" type="priority"/>
    <node id="1016079979" x="8852.10" y="10970.30" type="priority"/>
    <node id="101634057" x="12949.11" y="12336.47" type="priority"/>
    <node id="101634074" x="12842.80" y="12338.20" type="priority"/>
    <node id="101643699" x="13060.23" y="12471.98" type="priority"/>
    <node id="1018617264" x="7913.84" y="8412.39" type="priority"/>
    <node id="1024125215" x="10290.33" y="11084.57" type="priority"/>
    <node id="1024125217" x="10304.71" y="11111.18" type="priority"/>
    <node id="1026928270" x="8074.35" y="11777.14" type="dead_end"/>
    <node id="1026928283" x="8250.49" y="12059.42" type="priority"/>
    <node id="1026928301" x="8085.31" y="11755.65" type="dead_end"/>
    <node id="1026928393" x="8232.52" y="12163.55" type="priority"/>
    <node id="1027575143" x="11032.90" y="9482.06" type="traffic_light" tl="1027575143"/>
    <node id="1028661012" x="8932.29" y="8896.84" type="priority"/>
    <node id="1032758359" x="3737.42" y="4069.75" type="priority"/>
    <node id="1032759884" x="4229.05" y="4726.33" type="priority"/>
    <node id="1037753776" x="3733.89" y="8926.90" type="priority"/>
    <node id="1037753794" x="3749.82" y="8777.81" type="dead_end"/>
    <node id="1037911870" x="11009.72" y="7241.85" type="priority"/>
    <node id="1037911884" x="4610.99" y="823.48" type="priority"/>
    <node id="1037911887" x="4454.08" y="291.71" type="priority"/>
    <node id="1037911891" x="4665.51" y="853.65" type="priority"/>
    <node id="1037911897" x="4682.12" y="865.81" type="priority"/>
    <node id="1037911900" x="4438.30" y="215.91" type="priority"/>
    <node id="1037911906" x="11015.77" y="7114.34" type="priority"/>
    <node id="1037911916" x="4507.29" y="543.06" type="priority"/>
    <node id="1037911929" x="4530.97" y="652.70" type="priority"/>
    <node id="1037911935" x="4556.67" y="740.92" type="priority"/>
    <node id="1037911938" x="4470.46" y="369.67" type="priority"/>
    <node id="1037911939" x="4463.11" y="334.81" type="priority"/>
    <node id="1037911942" x="4561.37" y="750.03" type="priority"/>
    <node id="1037911946" x="4421.37" y="132.90" type="priority"/>
    <node id="1037917924" x="3790.24" y="1326.50" type="priority"/>
    <node id="1040070128" x="11266.60" y="4107.68" type="priority"/>
    <node id="1040877951" x="3477.27" y="2250.06" type="priority"/>
    <node id="1040877986" x="3509.71" y="2263.05" type="priority"/>
    <node id="1040878087" x="3475.41" y="2307.35" type="priority"/>
    <node id="1040992780" x="3341.01" y="3150.84" type="priority"/>
    <node id="1040992787" x="3402.88" y="3083.47" type="priority"/>
    <node id="1040992800" x="3360.26" y="3246.53" type="priority"/>
    <node id="1040992828" x="3402.21" y="3066.55" type="priority"/>
    <node id="1040992877" x="3375.33" y="3208.85" type="priority"/>
    <node id="1040992887" x="3339.86" y="3118.21" type="priority"/>
    <node id="1040992890" x="3350.38" y="3030.47" type="priority"/>
    <node id="1040992915" x="3392.46" y="3208.07" type="priority"/>
    <node id="1040992917" x="3343.56" y="3043.43" type="priority"/>
    <node id="1040992950" x="3403.50" y="3099.22" type="priority"/>
    <node id="1040992952" x="3404.16" y="3116.19" type="priority"/>
    <node id="1040992956" x="3338.24" y="3068.75" type="priority"/>
    <node id="1040992961" x="3377.39" y="3261.16" type="priority"/>
    <node id="1040992966" x="3339.25" y="3101.34" type="priority"/>
    <node id="1040992982" x="3404.80" y="3132.40" type="priority"/>
    <node id="1040992988" x="3340.43" y="3134.68" type="priority"/>
    <node id="1040992993" x="3395.52" y="3287.27" type="priority"/>
    <node id="1040992998" x="3338.71" y="3085.81" type="priority"/>
    <node id="1040993021" x="3380.07" y="3050.84" type="priority"/>
    <node id="1040993024" x="3381.13" y="3287.68" type="priority"/>
    <node id="1041008450" x="3381.93" y="3307.60" type="priority"/>
    <node id="1041008458" x="3373.76" y="3272.85" type="priority"/>
    <node id="1041008463" x="3367.57" y="3366.26" type="priority"/>
    <node id="1041008464" x="3384.00" y="3365.64" type="priority"/>
    <node id="1041008465" x="3347.64" y="3034.86" type="priority"/>
    <node id="1041008478" x="3338.54" y="3081.08" type="priority"/>
    <node id="1041008484" x="3314.95" y="3350.67" type="priority"/>
    <node id="1041008485" x="3382.91" y="3331.75" type="priority"/>
    <node id="1041008486" x="3381.20" y="3289.47" type="priority"/>
    <node id="1041008489" x="3339.15" y="3098.27" type="priority"/>
    <node id="1041008490" x="3313.48" y="3310.22" type="priority"/>
    <node id="1041008492" x="3314.36" y="3334.55" type="priority"/>
    <node id="1041008495" x="3315.59" y="3368.22" type="priority"/>
    <node id="1041008496" x="3383.57" y="3348.07" type="priority"/>
    <node id="1041008497" x="3292.44" y="3066.72" type="priority"/>
    <node id="1041008498" x="3338.28" y="3065.25" type="priority"/>
    <node id="1041008500" x="3277.95" y="3083.15" type="priority"/>
    <node id="1041008506" x="3341.76" y="3048.06" type="priority"/>
    <node id="1041008513" x="3312.82" y="3292.18" type="priority"/>
    <node id="1041008519" x="3312.23" y="3275.81" type="priority"/>
    <node id="1041015130" x="3345.23" y="3472.34" type="priority"/>
    <node id="1041015132" x="3355.26" y="3398.23" type="priority"/>
    <node id="1041015136" x="3355.90" y="3489.84" type="priority"/>
    <node id="1041015137" x="3407.18" y="3419.81" type="priority"/>
    <node id="1041015141" x="3405.14" y="3454.01" type="priority"/>
    <node id="1041015143" x="3343.98" y="3437.96" type="priority"/>
    <node id="1041015148" x="3344.64" y="3456.09" type="priority"/>
    <node id="1041015150" x="3401.98" y="3488.28" type="priority"/>
    <node id="1041015151" x="3403.63" y="3470.39" type="priority"/>
    <node id="1041015161" x="3345.88" y="3490.17" type="priority"/>
    <node id="1041015176" x="3405.99" y="3435.92" type="priority"/>
    <node id="1041059654" x="3167.01" y="4033.00" type="priority"/>
    <node id="1044330204" x="5175.09" y="11751.41" type="priority"/>
    <node id="1044330212" x="5570.56" y="11827.03" type="priority"/>
    <node id="105113363#11-AddedOffRampNode" x="4736.80" y="5951.60" type="priority"/>
    <node id="1057513338" x="8161.54" y="12061.95" type="priority"/>
    <node id="1057790411" x="4388.50" y="11458.41" type="dead_end"/>
    <node id="1057790421" x="4921.02" y="11641.56" type="dead_end"/>
    <node id="1057790447" x="5722.66" y="11738.93" type="dead_end"/>
    <node id="1057914592" x="4595.66" y="11449.47" type="priority"/>
    <node id="1058019894" x="8083.54" y="9754.80" type="priority"/>
    <node id="1058019903" x="8090.15" y="9715.31" type="priority"/>
    <node id="1058019913" x="8075.74" y="9801.53" type="priority"/>
    <node id="1058019916" x="8072.96" y="9818.17" type="priority"/>
    <node id="1058019920" x="8097.40" y="9803.88" type="priority"/>
    <node id="1058019925" x="5645.77" y="11438.95" type="priority"/>
    <node id="1058019929" x="5637.45" y="11420.59" type="unregulated"/>
    <node id="1058019931" x="8079.93" y="9776.45" type="priority"/>
    <node id="1058019970" x="5626.92" y="11425.90" type="unregulated"/>
    <node id="1064740934" x="9424.03" y="10257.57" type="priority"/>
    <node id="1064740939" x="9405.28" y="10244.98" type="unregulated"/>
    <node id="1064740940" x="9403.58" y="10254.15" type="priority"/>
    <node id="1064740941" x="9425.78" y="10248.32" type="unregulated"/>
    <node id="1064740943" x="9386.63" y="10177.35" type="dead_end"/>
    <node id="1064740944" x="9379.24" y="10173.24" type="priority"/>
    <node id="1066863925" x="3449.34" y="12087.96" type="priority"/>
    <node id="1067969756" x="10397.17" y="10983.14" type="priority"/>
    <node id="1067969760" x="10701.14" y="10596.99" type="priority"/>
    <node id="1067969792" x="10433.39" y="10933.71" type="priority"/>
    <node id="1067998754" x="9897.71" y="11480.32" type="priority"/>
    <node id="1067998932" x="9957.40" y="11554.02" type="priority"/>
    <node id="1067999124" x="10263.36" y="11168.41" type="priority"/>
    <node id="1068502297" x="16020.72" y="12103.76" type="priority"/>
    <node id="1068502356" x="15967.42" y="12084.66" type="priority"/>
    <node id="1068502358" x="15856.47" y="12030.78" type="priority"/>
    <node id="1068502399" x="15850.88" y="12036.52" type="priority"/>
    <node id="1083221086" x="8078.05" y="12030.06" type="priority"/>
    <node id="1083221284" x="7937.15" y="12005.74" type="priority"/>
    <node id="1083360045" x="8454.06" y="12142.06" type="priority"/>
    <node id="1083360060" x="9302.69" y="12148.93" type="priority"/>
    <node id="1083360087" x="10609.36" y="10686.61" type="priority"/>
    <node id="1083360099" x="10612.87" y="10677.68" type="priority"/>
    <node id="1083360108" x="10590.23" y="10707.71" type="priority"/>
    <node id="1083360125" x="10584.71" y="10707.07" type="priority"/>
    <node id="1083360142" x="10748.58" y="10535.43" type="priority"/>
    <node id="1088101018" x="7464.38" y="11838.53" type="priority"/>
    <node id="1088101071" x="8674.75" y="12023.08" type="priority"/>
    <node id="1088101330" x="8687.86" y="11919.39" type="priority"/>
    <node id="1088101334" x="7502.71" y="11876.46" type="priority"/>
    <node id="1088101754" x="7423.22" y="11796.61" type="priority"/>
    <node id="1094164250" x="10580.64" y="9737.39" type="priority"/>
    <node id="1094164266" x="10653.03" y="10092.25" type="priority"/>
    <node id="1094164300" x="10687.07" y="10126.79" type="priority"/>
    <node id="1094164305" x="10624.14" y="9694.17" type="dead_end"/>
    <node id="110365004#1-AddedOffRampNode" x="5861.76" y="5357.62" type="priority"/>
    <node id="1108824604" x="10578.01" y="10675.47" type="priority"/>
    <node id="1108824750" x="10574.90" y="10679.09" type="priority"/>
    <node id="1119685669" x="10012.73" y="2341.17" type="priority"/>
    <node id="1119685716" x="9953.03" y="2322.55" type="priority"/>
    <node id="1119699714" x="9323.82" y="982.34" type="priority"/>
    <node id="1119699715" x="9315.00" y="956.84" type="priority"/>
    <node id="1119699716" x="9112.99" y="989.25" type="priority"/>
    <node id="1119699719" x="9266.55" y="973.81" type="priority"/>
    <node id="1119699720" x="9326.64" y="1149.28" type="dead_end"/>
    <node id="1121323188" x="9092.93" y="3191.23" type="dead_end"/>
    <node id="1121325984" x="9321.80" y="3992.20" type="priority"/>
    <node id="1126947954" x="6913.06" y="8033.34" type="priority"/>
    <node id="1127285746" x="7451.07" y="9770.70" type="priority"/>
    <node id="1127285904" x="7884.16" y="9416.65" type="priority"/>
    <node id="1130066604" x="3747.89" y="73.63" type="unregulated"/>
    <node id="1130087961" x="3825.94" y="287.47" type="priority"/>
    <node id="1130121657" x="3845.62" y="278.51" type="dead_end"/>
    <node id="1130126540" x="3895.53" y="129.27" type="priority"/>
    <node id="1130128057" x="3884.68" y="209.15" type="dead_end"/>
    <node id="1130138939" x="3836.22" y="498.74" type="dead_end"/>
    <node id="1130232362" x="10715.59" y="3564.21" type="priority"/>
    <node id="1130232363" x="10690.97" y="3474.99" type="priority"/>
    <node id="1130232445" x="10732.45" y="3626.99" type="priority"/>
    <node id="1130232548" x="10738.76" y="3650.48" type="priority"/>
    <node id="1130232564" x="10763.76" y="3735.41" type="priority"/>
    <node id="1130232835" x="10788.43" y="3825.43" type="priority"/>
    <node id="1130232907" x="10812.79" y="3914.82" type="priority"/>
    <node id="1130232982" x="10836.50" y="4002.29" type="priority"/>
    <node id="1130233100" x="10859.63" y="4090.44" type="priority"/>
    <node id="1130233352" x="10884.20" y="4177.24" type="priority"/>
    <node id="1130233384" x="10907.68" y="4265.14" type="priority"/>
    <node id="1130233400" x="10931.44" y="4353.48" type="priority"/>
    <node id="1130233489" x="10955.49" y="4442.16" type="priority"/>
    <node id="1130233511" x="10976.70" y="4530.01" type="priority"/>
    <node id="1130233612" x="11001.16" y="4617.60" type="priority"/>
    <node id="1130233649" x="11024.92" y="4704.86" type="priority"/>
    <node id="1130233732" x="11048.58" y="4792.48" type="priority"/>
    <node id="1130233816" x="11072.33" y="4881.88" type="priority"/>
    <node id="1130233868" x="11095.55" y="4966.33" type="priority"/>
    <node id="1130233900" x="11098.68" y="4976.72" type="priority"/>
    <node id="1130233965" x="11122.35" y="5062.61" type="priority"/>
    <node id="1130235836" x="10548.70" y="3057.79" type="priority"/>
    <node id="1130235919" x="10579.40" y="3142.19" type="priority"/>
    <node id="1130235992" x="10607.48" y="3224.06" type="priority"/>
    <node id="1130236011" x="10636.96" y="3307.70" type="priority"/>
    <node id="1130236075" x="10664.78" y="3393.32" type="priority"/>
    <node id="1130237002" x="10517.59" y="2969.62" type="priority"/>
    <node id="1130237134" x="10488.02" y="2884.80" type="priority"/>
    <node id="1130237687" x="10459.38" y="2802.58" type="priority"/>
    <node id="1130237916" x="10427.23" y="2713.43" type="priority"/>
    <node id="1130238051" x="10399.85" y="2635.81" type="priority"/>
    <node id="1130242663" x="10716.09" y="6348.33" type="priority"/>
    <node id="1130242665" x="10669.57" y="6344.73" type="priority"/>
    <node id="1130244290" x="5997.19" y="10206.33" type="priority"/>
    <node id="1130257461" x="10068.78" y="5169.79" type="priority"/>
    <node id="1130257482" x="10235.29" y="5405.47" type="dead_end"/>
    <node id="1130257483" x="10026.77" y="5199.17" type="priority"/>
    <node id="1130257484" x="10115.06" y="5322.81" type="dead_end"/>
    <node id="1130261069" x="9952.66" y="5251.59" type="priority"/>
    <node id="1130284621" x="10427.62" y="5865.02" type="dead_end"/>
    <node id="1130443087" x="10499.03" y="6419.56" type="dead_end"/>
    <node id="1130723199" x="1586.17" y="8024.53" type="priority"/>
    <node id="1130723332" x="1313.99" y="8035.30" type="dead_end"/>
    <node id="1130725611" x="1303.79" y="8091.67" type="priority"/>
    <node id="1132514561" x="1680.46" y="7800.14" type="priority"/>
    <node id="1132514572" x="1660.82" y="7854.19" type="priority"/>
    <node id="1132514653" x="1702.14" y="7809.67" type="dead_end"/>
    <node id="1147880097" x="10704.94" y="10311.80" type="priority"/>
    <node id="1147880104" x="10795.35" y="9954.29" type="priority"/>
    <node id="1147880105" x="10767.02" y="9942.86" type="priority"/>
    <node id="1147880114" x="10701.69" y="10315.01" type="priority"/>
    <node id="1147880120" x="10783.74" y="9926.30" type="priority"/>
    <node id="1147880121" x="10624.48" y="10237.60" type="priority"/>
    <node id="1148372803" x="5776.60" y="9415.04" type="dead_end"/>
    <node id="1148372819" x="5826.55" y="9423.35" type="priority"/>
    <node id="1148372833" x="5825.38" y="9693.68" type="priority"/>
    <node id="1148372849" x="5844.91" y="9652.08" type="priority"/>
    <node id="1148372905" x="5767.69" y="9628.67" type="priority"/>
    <node id="1148372910" x="5844.10" y="9422.82" type="priority"/>
    <node id="1148372911" x="5828.40" y="9335.74" type="priority"/>
    <node id="1148372917" x="5817.75" y="9474.55" type="dead_end"/>
    <node id="1152536912" x="5713.44" y="9324.12" type="priority"/>
    <node id="1152536989" x="4684.34" y="9976.48" type="priority"/>
    <node id="1152537025" x="5712.49" y="9333.12" type="priority"/>
    <node id="1157484087" x="5026.20" y="1001.69" type="priority"/>
    <node id="1157484089" x="4870.91" y="932.88" type="priority"/>
    <node id="1157484091" x="5057.28" y="1014.23" type="priority"/>
    <node id="1157484092" x="4943.98" y="965.15" type="priority"/>
    <node id="1157484093" x="5208.55" y="1080.57" type="traffic_light" tl="joinedS_35"/>
    <node id="1157484094" x="5101.91" y="1034.60" type="priority"/>
    <node id="1157512940" x="4860.13" y="561.94" type="dead_end"/>
    <node id="1157512947" x="2962.40" y="220.14" type="priority"/>
    <node id="1157512953" x="2842.66" y="353.34" type="priority"/>
    <node id="1157512958" x="2822.02" y="418.61" type="priority"/>
    <node id="1157512963" x="2888.52" y="417.18" type="priority"/>
    <node id="1157512967" x="2833.86" y="396.10" type="priority"/>
    <node id="1157512968" x="2831.94" y="369.66" type="priority"/>
    <node id="1157539327" x="3770.34" y="5786.01" type="priority"/>
    <node id="1157539366" x="4097.70" y="5246.19" type="priority"/>
    <node id="1157539601" x="3656.62" y="5602.37" type="priority"/>
    <node id="1157539983" x="3643.72" y="5809.22" type="priority"/>
    <node id="1157540061" x="3795.10" y="5997.46" type="priority"/>
    <node id="1157540185" x="3689.69" y="5875.23" type="priority"/>
    <node id="1157540243" x="4072.51" y="5563.58" type="dead_end"/>
    <node id="1157540291" x="3630.80" y="6016.44" type="priority"/>
    <node id="1172353250" x="5863.67" y="6202.97" type="priority"/>
    <node id="1172626586" x="3933.09" y="831.15" type="priority"/>
    <node id="1172626755" x="3957.56" y="781.63" type="priority"/>
    <node id="1172627819" x="3935.92" y="761.43" type="priority"/>
    <node id="1172630257" x="3861.12" y="804.29" type="dead_end"/>
    <node id="1172641628" x="3980.34" y="933.39" type="dead_end"/>
    <node id="1172641782" x="3920.40" y="839.61" type="dead_end"/>
    <node id="1172644728" x="4115.54" y="1046.60" type="priority"/>
    <node id="1172644886" x="4067.68" y="868.15" type="dead_end"/>
    <node id="1172644936" x="4027.15" y="777.91" type="dead_end"/>
    <node id="1172644953" x="4030.02" y="769.25" type="priority"/>
    <node id="1172705135" x="4084.94" y="866.73" type="priority"/>
    <node id="1172710530" x="4074.53" y="867.72" type="priority"/>
    <node id="1172711302" x="4086.51" y="902.29" type="priority"/>
    <node id="1172711306" x="4092.66" y="944.58" type="priority"/>
    <node id="1172712834" x="4081.08" y="946.80" type="priority"/>
    <node id="1172717584" x="4076.07" y="776.25" type="priority"/>
    <node id="1172720945" x="4080.37" y="943.10" type="priority"/>
    <node id="1172723705" x="4089.07" y="748.71" type="priority"/>
    <node id="1172723710" x="4094.93" y="740.62" type="priority"/>
    <node id="1172723720" x="4100.66" y="733.31" type="priority"/>
    <node id="1172747892" x="4709.30" y="1303.12" type="priority"/>
    <node id="1173685013" x="4020.37" y="1051.68" type="priority"/>
    <node id="1173685149" x="4015.29" y="1043.59" type="dead_end"/>
    <node id="1193434296" x="8135.57" y="12040.01" type="priority"/>
    <node id="1193434897" x="8169.25" y="12093.64" type="priority"/>
    <node id="1196699108" x="2825.74" y="4353.01" type="dead_end"/>
    <node id="1196699258" x="2735.03" y="4392.50" type="dead_end"/>
    <node id="1196701736" x="3118.52" y="4324.38" type="priority"/>
    <node id="1196701858" x="3023.54" y="4318.73" type="priority"/>
    <node id="1196702052" x="2468.16" y="4063.42" type="priority"/>
    <node id="1196702054" x="2473.39" y="3972.52" type="priority"/>
    <node id="1196702794" x="3012.07" y="4035.73" type="dead_end"/>
    <node id="1196703061" x="2853.07" y="4089.48" type="priority"/>
    <node id="1196703170" x="2978.77" y="4046.96" type="priority"/>
    <node id="1196740419" x="1548.10" y="7437.08" type="priority"/>
    <node id="1196749436" x="1787.51" y="3511.24" type="priority"/>
    <node id="1196753544" x="1543.80" y="7229.59" type="priority"/>
    <node id="1196765186" x="1858.71" y="3423.24" type="priority"/>
    <node id="1196826498" x="2554.90" y="2839.11" type="priority"/>
    <node id="1196827852" x="2571.12" y="2895.28" type="priority"/>
    <node id="1196830001" x="2591.63" y="2804.29" type="priority"/>
    <node id="1196839521" x="2590.07" y="1816.48" type="priority"/>
    <node id="1196840126" x="2544.80" y="1809.41" type="traffic_light" tl="joinedS_36"/>
    <node id="1196840143" x="2542.82" y="1811.04" type="traffic_light" tl="joinedS_36"/>
    <node id="1196840150" x="2588.97" y="1802.02" type="priority"/>
    <node id="1196842495" x="2526.16" y="1746.90" type="priority"/>
    <node id="1196844367" x="2548.26" y="1895.11" type="priority"/>
    <node id="1196846647" x="2444.05" y="2102.87" type="dead_end"/>
    <node id="1196851008" x="2856.34" y="1928.37" type="priority"/>
    <node id="1196875324" x="3513.22" y="1991.34" type="priority"/>
    <node id="1196884882" x="3593.03" y="1796.39" type="priority"/>
    <node id="1196897039" x="2668.44" y="2471.36" type="priority"/>
    <node id="1197851605" x="1084.55" y="3330.47" type="priority"/>
    <node id="1197851606" x="1073.40" y="3334.76" type="priority"/>
    <node id="1197858273" x="1927.66" y="3387.79" type="priority"/>
    <node id="1197858760" x="1781.39" y="3425.36" type="unregulated"/>
    <node id="1197860845" x="2414.92" y="3455.18" type="priority"/>
    <node id="1197860846" x="2419.55" y="3467.38" type="priority"/>
    <node id="1197862016" x="2639.17" y="3181.95" type="priority"/>
    <node id="1197862017" x="2654.74" y="3188.88" type="priority"/>
    <node id="1201336071" x="2925.22" y="2508.89" type="priority"/>
    <node id="1201336072" x="2938.47" y="2508.40" type="priority"/>
    <node id="1201336180" x="3086.48" y="2502.81" type="priority"/>
    <node id="1201336181" x="3086.27" y="2497.32" type="priority"/>
    <node id="1201336245" x="3259.81" y="2490.78" type="priority"/>
    <node id="1201336698" x="3406.10" y="2443.73" type="priority"/>
    <node id="1201336863" x="3097.10" y="2546.72" type="dead_end"/>
    <node id="1201337039" x="3210.37" y="2498.14" type="priority"/>
    <node id="1201371532" x="2734.17" y="2529.44" type="priority"/>
    <node id="1201381385" x="3418.33" y="2448.72" type="priority"/>
    <node id="1201384569" x="3456.87" y="2537.00" type="priority"/>
    <node id="1201384590" x="3431.62" y="2568.17" type="priority"/>
    <node id="1201405888" x="3598.08" y="1759.09" type="priority"/>
    <node id="1201405889" x="3593.94" y="1789.66" type="priority"/>
    <node id="1201407911" x="3567.02" y="1899.14" type="priority"/>
    <node id="1201407935" x="3540.57" y="1919.14" type="priority"/>
    <node id="1201411453" x="2933.07" y="2124.27" type="priority"/>
    <node id="1201411456" x="2898.66" y="2125.67" type="priority"/>
    <node id="1201411592" x="2835.29" y="2128.14" type="priority"/>
    <node id="1201411595" x="2801.48" y="2129.16" type="priority"/>
    <node id="1201412720" x="2903.18" y="2295.64" type="priority"/>
    <node id="1201412723" x="2939.83" y="2294.42" type="priority"/>
    <node id="1201412844" x="2806.59" y="2298.91" type="priority"/>
    <node id="1201412846" x="2842.64" y="2297.68" type="priority"/>
    <node id="1201417904" x="3411.76" y="2116.70" type="priority"/>
    <node id="1202331695" x="2573.44" y="2242.00" type="priority"/>
    <node id="1202331982" x="2573.80" y="2213.80" type="priority"/>
    <node id="1202332423" x="2573.70" y="2099.75" type="priority"/>
    <node id="1202332578" x="2616.95" y="2541.23" type="priority"/>
    <node id="1202332599" x="2572.46" y="2508.03" type="priority"/>
    <node id="1202382154" x="3588.93" y="2322.71" type="priority"/>
    <node id="1202382590" x="3496.66" y="2380.58" type="priority"/>
    <node id="1205120631" x="11159.11" y="6383.92" type="priority"/>
    <node id="1205120636" x="11076.86" y="7427.41" type="priority"/>
    <node id="1205120638" x="11223.20" y="5697.46" type="priority"/>
    <node id="1205120644" x="11142.24" y="5814.39" type="priority"/>
    <node id="1205120650" x="11123.71" y="6094.41" type="priority"/>
    <node id="1205120670" x="11111.12" y="6950.63" type="priority"/>
    <node id="1205120697" x="11104.22" y="6071.63" type="priority"/>
    <node id="1205120723" x="11124.71" y="6099.55" type="priority"/>
    <node id="1205120755" x="11059.68" y="7660.50" type="priority"/>
    <node id="1205120823" x="11121.11" y="5833.59" type="priority"/>
    <node id="1205120826" x="11122.59" y="5789.01" type="priority"/>
    <node id="1205120835" x="11170.91" y="6242.27" type="priority"/>
    <node id="1205120872" x="11100.37" y="6117.77" type="priority"/>
    <node id="1205120875" x="11133.97" y="6667.28" type="priority"/>
    <node id="1205459552" x="3111.78" y="1787.43" type="priority"/>
    <node id="1205459555" x="3112.47" y="1770.53" type="priority"/>
    <node id="1205459580" x="3403.91" y="1606.77" type="dead_end"/>
    <node id="1205459583" x="3182.68" y="1772.66" type="priority"/>
    <node id="1205459585" x="3182.11" y="1789.35" type="priority"/>
    <node id="1205459592" x="3338.16" y="1655.26" type="dead_end"/>
    <node id="1205459611" x="3307.13" y="1769.48" type="dead_end"/>
    <node id="1205565336" x="2884.54" y="1602.58" type="dead_end"/>
    <node id="1206753810" x="9748.89" y="10097.67" type="priority"/>
    <node id="1206753813" x="9731.95" y="10201.46" type="priority"/>
    <node id="1206794780" x="10332.18" y="2460.68" type="priority"/>
    <node id="1206794820" x="10943.01" y="2215.48" type="dead_end"/>
    <node id="1206800134" x="11088.30" y="9289.55" type="priority"/>
    <node id="1206800176" x="10683.68" y="10714.08" type="priority"/>
    <node id="1206800381" x="10632.69" y="10676.05" type="priority"/>
    <node id="1206800383" x="11098.63" y="9284.49" type="priority"/>
    <node id="1206800403" x="10695.77" y="10723.10" type="dead_end"/>
    <node id="1206800474" x="10653.33" y="10754.26" type="priority"/>
    <node id="1206893700" x="9614.43" y="10454.19" type="priority"/>
    <node id="1206893707" x="9586.26" y="10450.31" type="dead_end"/>
    <node id="1207466276" x="10144.10" y="10801.04" type="priority"/>
    <node id="1207466298" x="10312.51" y="10925.89" type="priority"/>
    <node id="1211268184" x="3239.87" y="8040.24" type="priority"/>
    <node id="1211324459" x="4125.14" y="7746.23" type="priority"/>
    <node id="1211324558" x="4124.27" y="7728.03" type="priority"/>
    <node id="1211468672" x="3978.01" y="116.82" type="dead_end"/>
    <node id="1211585283" x="5123.34" y="6164.11" type="priority"/>
    <node id="1211585290" x="5169.72" y="6313.32" type="priority"/>
    <node id="1211585299" x="5282.19" y="6579.58" type="priority"/>
    <node id="1211585301" x="5250.67" y="6516.31" type="priority"/>
    <node id="1211585311" x="5357.20" y="6640.72" type="priority"/>
    <node id="1211585321" x="4638.87" y="5933.47" type="priority"/>
    <node id="1211585329" x="5084.13" y="6060.09" type="priority"/>
    <node id="1211585379" x="4885.97" y="5945.11" type="priority"/>
    <node id="1211585383" x="4841.59" y="5959.86" type="priority"/>
    <node id="1211594133" x="5361.03" y="6634.38" type="priority"/>
    <node id="1211594135" x="5132.96" y="6158.74" type="priority"/>
    <node id="1211594149" x="5058.66" y="5910.58" type="priority"/>
    <node id="1211594157" x="5050.26" y="5918.19" type="priority"/>
    <node id="1211594164" x="5290.28" y="6572.02" type="priority"/>
    <node id="1211594165" x="4882.21" y="5934.78" type="priority"/>
    <node id="1211594179" x="5180.24" y="6309.96" type="priority"/>
    <node id="1211602783" x="4719.50" y="5697.33" type="priority"/>
    <node id="1211602820" x="4829.62" y="5563.79" type="priority"/>
    <node id="1211602822" x="4849.35" y="5560.04" type="priority"/>
    <node id="1211602828" x="4812.16" y="5441.73" type="traffic_light" tl="joinedS_42"/>
    <node id="1220797451" x="11216.00" y="5001.66" type="priority"/>
    <node id="1220797518" x="11075.16" y="5310.79" type="dead_end"/>
    <node id="1220797583" x="11179.83" y="5070.89" type="dead_end"/>
    <node id="1220797781" x="11165.98" y="4931.53" type="priority"/>
    <node id="1221102754" x="10593.32" y="3234.13" type="priority"/>
    <node id="1221102759" x="10603.00" y="3220.46" type="priority"/>
    <node id="1221102763" x="10620.09" y="3247.95" type="priority"/>
    <node id="1221102766" x="11065.73" y="6375.26" type="priority"/>
    <node id="1221102770" x="11068.75" y="6385.65" type="priority"/>
    <node id="1221102777" x="10608.21" y="3234.68" type="priority"/>
    <node id="1221102789" x="10510.78" y="3290.45" type="unregulated"/>
    <node id="1221102791" x="10586.38" y="3237.39" type="priority"/>
    <node id="1221102796" x="11087.49" y="6387.08" type="priority"/>
    <node id="1221102809" x="11093.35" y="6377.17" type="priority"/>
    <node id="1221102820" x="11070.55" y="6364.22" type="priority"/>
    <node id="1221102835" x="10679.77" y="3643.40" type="priority"/>
    <node id="1221102837" x="11089.05" y="6367.49" type="priority"/>
    <node id="1221102868" x="10598.03" y="3197.24" type="priority"/>
    <node id="1221413713" x="10940.26" y="2781.25" type="priority"/>