<?xml version="1.0" encoding="UTF-8"?>

<!-- generated on Tue Feb 18 17:48:57 2014 by SUMO netconvert Version 0.17.1
<?xml version="1.0" encoding="UTF-8"?>

<configuration xmlns:xsi="http://www.w3.org/2001/XMLSchema-instance" xsi:noNamespaceSchemaLocation="http://sumo.sf.net/xsd/netconvertConfiguration.xsd">

    <input>
        <sumo-net-file value="san_fran.net.xml"/>
    </input>

    <output>
        <plain-output-prefix value="san_fran"/>
    </output>

    <processing>
        <no-turnarounds value="true"/>
        <offset.disable-normalization value="true"/>
    </processing>

</configuration>
-->

<tlLogics version="0.13" xmlns:xsi="http://www.w3.org/2001/XMLSchema-instance" xsi:noNamespaceSchemaLocation="http://sumo.sf.net/xsd/tllogic_file.xsd">
    <tlLogic id="1027575143" type="static" programID="0" offset="0">
        <phase duration="31" state="GG"/>
        <phase duration="4" state="yy"/>
    </tlLogic>
    <tlLogic id="1723738829" type="static" programID="0" offset="0">
        <phase duration="31" state="GGGrrGGGrr"/>
        <phase duration="4" state="yyyrryyyrr"/>
        <phase duration="31" state="GrrGGGrrGG"/>
        <phase duration="4" state="yrryyyrryy"/>
    </tlLogic>
    <tlLogic id="1723738865" type="static" programID="0" offset="0">
        <phase duration="31" state="GGGGG"/>
        <phase duration="4" state="yyyyy"/>
        <phase duration="31" state="GGGGG"/>
        <phase duration="4" state="yyyyy"/>
    </tlLogic>
    <tlLogic id="2071244791" type="static" programID="0" offset="0">
        <phase duration="31" state="rrrGgGG"/>
        <phase duration="4" state="rrrygyy"/>
        <phase duration="6" state="rrrrGrr"/>
        <phase duration="4" state="rrrryrr"/>
        <phase duration="31" state="GGGrrrr"/>
        <phase duration="4" state="yyyrrrr"/>
    </tlLogic>
    <tlLogic id="2081671274" type="static" programID="0" offset="0">
        <phase duration="31" state="GGrrrGg"/>
        <phase duration="4" state="yyrrryg"/>
        <phase duration="6" state="rrrrrrG"/>
        <phase duration="4" state="rrrrrry"/>
        <phase duration="31" state="rrGGGrr"/>
        <phase duration="4" state="rryyyrr"/>
    </tlLogic>
    <tlLogic id="2081705811" type="static" programID="0" offset="0">
        <phase duration="31" state="rrrGGgrrrGGg"/>
        <phase duration="4" state="rrryygrrryyg"/>
        <phase duration="6" state="rrrrrGrrrrrG"/>
        <phase duration="4" state="rrrrryrrrrry"/>
        <phase duration="31" state="GGgrrrGGgrrr"/>
        <phase duration="4" state="yygrrryygrrr"/>
        <phase duration="6" state="rrGrrrrrGrrr"/>
        <phase duration="4" state="rryrrrrryrrr"/>
    </tlLogic>
    <tlLogic id="2081713041" type="static" programID="0" offset="0">
        <phase duration="31" state="G"/>
        <phase duration="9" state="y"/>
    </tlLogic>
    <tlLogic id="2246409066" type="static" programID="0" offset="0">
        <phase duration="31" state="GG"/>
        <phase duration="4" state="yy"/>
        <phase duration="31" state="GG"/>
        <phase duration="4" state="yy"/>
    </tlLogic>
    <tlLogic id="258756405" type="static" programID="0" offset="0">
        <phase duration="31" state="rrGGGrrrGGg"/>
        <phase duration="4" state="rryyyrrryyg"/>
        <phase duration="6" state="rrrrrrrrrrG"/>
        <phase duration="4" state="rrrrrrrrrry"/>
        <phase duration="31" state="GgrrrGGgrrr"/>
        <phase duration="4" state="ygrrryygrrr"/>
        <phase duration="6" state="rGrrrrrGrrr"/>
        <phase duration="4" state="ryrrrrryrrr"/>
    </tlLogic>
    <tlLogic id="258761269" type="static" programID="0" offset="0">
        <phase duration="31" state="rrrGgGG"/>
        <phase duration="4" state="rrrygyy"/>
        <phase duration="6" state="rrrrGrr"/>
        <phase duration="4" state="rrrryrr"/>
        <phase duration="31" state="GGGrrrr"/>
        <phase duration="4" state="yyyrrrr"/>
    </tlLogic>
    <tlLogic id="258886222" type="static" programID="0" offset="0">
        <phase duration="31" state="GGGGrrrGg"/>
        <phase duration="4" state="yyyyrrryg"/>
        <phase duration="6" state="rrrrrrrrG"/>
        <phase duration="4" state="rrrrrrrry"/>
        <phase duration="31" state="rrrGGGGrr"/>
        <phase duration="4" state="rrryyyyrr"/>
    </tlLogic>
    <tlLogic id="258965258" type="static" programID="0" offset="0">
        <phase duration="31" state="GgGGrrr"/>
        <phase duration="4" state="ygyyrrr"/>
        <phase duration="6" state="rGrrrrr"/>
        <phase duration="4" state="ryrrrrr"/>
        <phase duration="31" state="rrrrGGG"/>
        <phase duration="4" state="rrrryyy"/>
    </tlLogic>
    <tlLogic id="258965841" type="static" programID="0" offset="0">
        <phase duration="31" state="gggggrrrrGGGrrr"/>
        <phase duration="4" state="gggggrrrryyyrrr"/>
        <phase duration="6" state="GGGGGrrrrrrrrrr"/>
        <phase duration="4" state="yyyyyrrrrrrrrrr"/>
        <phase duration="31" state="rrrrrGGGGrrrggg"/>
        <phase duration="4" state="rrrrryyyyrrrggg"/>
        <phase duration="6" state="rrrrrrrrrrrrGGG"/>
        <phase duration="4" state="rrrrrrrrrrrryyy"/>
    </tlLogic>
    <tlLogic id="258968247" type="static" programID="0" offset="0">
        <phase duration="31" state="GGG"/>
        <phase duration="4" state="yyy"/>
        <phase duration="31" state="GGG"/>
        <phase duration="4" state="yyy"/>
    </tlLogic>
    <tlLogic id="2642129714" type="static" programID="0" offset="0">
        <phase duration="31" state="GGgrrrGGgrrr"/>
        <phase duration="4" state="yygrrryygrrr"/>
        <phase duration="6" state="rrGrrrrrGrrr"/>
        <phase duration="4" state="rryrrrrryrrr"/>
        <phase duration="31" state="rrrGGgrrrGGg"/>
        <phase duration="4" state="rrryygrrryyg"/>
        <phase duration="6" state="rrrrrGrrrrrG"/>
        <phase duration="4" state="rrrrryrrrrry"/>
    </tlLogic>
    <tlLogic id="267455444" type="static" programID="0" offset="0">
        <phase duration="31" state="GGr"/>
        <phase duration="4" state="yyr"/>
        <phase duration="31" state="GrG"/>
        <phase duration="4" state="yry"/>
    </tlLogic>
    <tlLogic id="275431510" type="static" programID="0" offset="0">
        <phase duration="31" state="GG"/>
        <phase duration="4" state="yy"/>
    </tlLogic>
    <tlLogic id="276545995" type="static" programID="0" offset="0">
        <phase duration="31" state="GGgrrGGgrrr"/>
        <phase duration="4" state="yygrryygrrr"/>
        <phase duration="6" state="rrGrrrrGrrr"/>
        <phase duration="4" state="rryrrrryrrr"/>
        <phase duration="31" state="rrrGGrrrGGg"/>
        <phase duration="4" state="rrryyrrryyg"/>
        <phase duration="6" state="rrrrrrrrrrG"/>
        <phase duration="4" state="rrrrrrrrrry"/>
    </tlLogic>
    <tlLogic id="276546183" type="static" programID="0" offset="0">
        <phase duration="31" state="GGGGrrGg"/>
        <phase duration="4" state="yyyyrryg"/>
        <phase duration="6" state="rrrrrrrG"/>
        <phase duration="4" state="rrrrrrry"/>
        <phase duration="31" state="GrrGGGrr"/>
        <phase duration="4" state="yrryyyrr"/>
    </tlLogic>
    <tlLogic id="293625602" type="static" programID="0" offset="0">
        <phase duration="31" state="GrrGg"/>
        <phase duration="4" state="yrryg"/>
        <phase duration="6" state="rrrrG"/>
        <phase duration="4" state="rrrry"/>
        <phase duration="31" state="rGGrr"/>
        <phase duration="4" state="ryyrr"/>
    </tlLogic>
    <tlLogic id="293626968" type="static" programID="0" offset="0">
        <phase duration="31" state="GG"/>
        <phase duration="4" state="yy"/>
    </tlLogic>
    <tlLogic id="293818731" type="static" programID="0" offset="0">
        <phase duration="31" state="GGgGGGrrr"/>
        <phase duration="4" state="yygyyyrrr"/>
        <phase duration="6" state="rrGrrrrrr"/>
        <phase duration="4" state="rryrrrrrr"/>
        <phase duration="31" state="rrrrrrGGG"/>
        <phase duration="4" state="rrrrrryyy"/>
    </tlLogic>
    <tlLogic id="293820532" type="static" programID="0" offset="0">
        <phase duration="31" state="GGrr"/>
        <phase duration="4" state="yyrr"/>
        <phase duration="31" state="rGGG"/>
        <phase duration="4" state="ryyy"/>
    </tlLogic>
    <tlLogic id="298938898" type="static" programID="0" offset="0">
        <phase duration="31" state="GG"/>
        <phase duration="4" state="yy"/>
        <phase duration="31" state="GG"/>
        <phase duration="4" state="yy"/>
    </tlLogic>
    <tlLogic id="301203913" type="static" programID="0" offset="0">
        <phase duration="31" state="GG"/>
        <phase duration="4" state="yy"/>
    </tlLogic>
    <tlLogic id="301203916" type="static" programID="0" offset="0">
        <phase duration="31" state="GG"/>
        <phase duration="4" state="yy"/>
    </tlLogic>
    <tlLogic id="302034219" type="static" programID="0" offset="0">
        <phase duration="31" state="GGrr"/>
        <phase duration="4" state="yyrr"/>
        <phase duration="31" state="rGGG"/>
        <phase duration="4" state="ryyy"/>
    </tlLogic>
    <tlLogic id="302909901" type="static" programID="0" offset="0">
        <phase duration="31" state="GG"/>
        <phase duration="5" state="yy"/>
    </tlLogic>
    <tlLogic id="302910056" type="static" programID="0" offset="0">
        <phase duration="31" state="GG"/>
        <phase duration="5" state="yy"/>
    </tlLogic>
    <tlLogic id="302964583" type="static" programID="0" offset="0">
        <phase duration="31" state="GG"/>
        <phase duration="5" state="yy"/>
    </tlLogic>
    <tlLogic id="302964584" type="static" programID="0" offset="0">
        <phase duration="31" state="GG"/>
        <phase duration="5" state="yy"/>
    </tlLogic>
    <tlLogic id="307638472" type="static" programID="0" offset="0">
        <phase duration="31" state="GGrG"/>
        <phase duration="4" state="yyry"/>
        <phase duration="31" state="GrGG"/>
        <phase duration="4" state="yryy"/>
    </tlLogic>
    <tlLogic id="313263546" type="static" programID="0" offset="0">
        <phase duration="31" state="rrGG"/>
        <phase duration="4" state="rryy"/>
        <phase duration="31" state="GGrr"/>
        <phase duration="4" state="yyrr"/>
    </tlLogic>
    <tlLogic id="552853360" type="static" programID="0" offset="0">
        <phase duration="31" state="rrrGGG"/>
        <phase duration="4" state="rrryyy"/>
        <phase duration="31" state="GGGrrr"/>
        <phase duration="4" state="yyyrrr"/>
    </tlLogic>
    <tlLogic id="552853367" type="static" programID="0" offset="0">
        <phase duration="31" state="GGrrrGg"/>
        <phase duration="4" state="yyrrryg"/>
        <phase duration="6" state="rrrrrrG"/>
        <phase duration="4" state="rrrrrry"/>
        <phase duration="31" state="rrGGGrr"/>
        <phase duration="4" state="rryyyrr"/>
    </tlLogic>
    <tlLogic id="581047109" type="static" programID="0" offset="0">
        <phase duration="31" state="GGgrrrGGgrrr"/>
        <phase duration="4" state="yygrrryygrrr"/>
        <phase duration="6" state="rrGrrrrrGrrr"/>
        <phase duration="4" state="rryrrrrryrrr"/>
        <phase duration="31" state="rrrGGgrrrGGg"/>
        <phase duration="4" state="rrryygrrryyg"/>
        <phase duration="6" state="rrrrrGrrrrrG"/>
        <phase duration="4" state="rrrrryrrrrry"/>
    </tlLogic>
    <tlLogic id="589498591" type="static" programID="0" offset="0">
        <phase duration="31" state="GGrr"/>
        <phase duration="4" state="yyrr"/>
        <phase duration="31" state="rGGG"/>
        <phase duration="4" state="ryyy"/>
    </tlLogic>
    <tlLogic id="615144453" type="static" programID="0" offset="0">
        <phase duration="31" state="GG"/>
        <phase duration="5" state="yy"/>
    </tlLogic>
    <tlLogic id="615144454" type="static" programID="0" offset="0">
        <phase duration="31" state="GG"/>
        <phase duration="5" state="yy"/>
    </tlLogic>
    <tlLogic id="615144492" type="static" programID="0" offset="0">
        <phase duration="31" state="GG"/>
        <phase duration="5" state="yy"/>
    </tlLogic>
    <tlLogic id="615144495" type="static" programID="0" offset="0">
        <phase duration="31" state="GG"/>
        <phase duration="5" state="yy"/>
    </tlLogic>
    <tlLogic id="615144524" type="static" programID="0" offset="0">
        <phase duration="31" state="GG"/>
        <phase duration="5" state="yy"/>
    </tlLogic>
    <tlLogic id="615144526" type="static" programID="0" offset="0">
        <phase duration="31" state="GG"/>
        <phase duration="5" state="yy"/>
    </tlLogic>
    <tlLogic id="65280072" type="static" programID="0" offset="0">
        <phase duration="31" state="rrrGGgrrrGGg"/>
        <phase duration="4" state="rrryygrrryyg"/>
        <phase duration="6" state="rrrrrGrrrrrG"/>
        <phase duration="4" state="rrrrryrrrrry"/>
        <phase duration="31" state="GGgrrrGGgrrr"/>
        <phase duration="4" state="yygrrryygrrr"/>
        <phase duration="6" state="rrGrrrrrGrrr"/>
        <phase duration="4" state="rryrrrrryrrr"/>
    </tlLogic>
    <tlLogic id="65281164" type="static" programID="0" offset="0">
        <phase duration="31" state="GGrrrGg"/>
        <phase duration="4" state="yyrrryg"/>
        <phase duration="6" state="rrrrrrG"/>
        <phase duration="4" state="rrrrrry"/>
        <phase duration="31" state="rrGGGrr"/>
        <phase duration="4" state="rryyyrr"/>
    </tlLogic>
    <tlLogic id="65281429" type="static" programID="0" offset="0">
        <phase duration="31" state="rrGGGgG"/>
        <phase duration="4" state="rryyygy"/>
        <phase duration="6" state="rrrrrGr"/>
        <phase duration="4" state="rrrrryr"/>
        <phase duration="31" state="GGrrGrr"/>
        <phase duration="4" state="yyrryrr"/>
    </tlLogic>
    <tlLogic id="65283935" type="static" programID="0" offset="0">
        <phase duration="31" state="gggrrrGGG"/>
        <phase duration="4" state="gggrrryyy"/>
        <phase duration="6" state="GGGrrrrrr"/>
        <phase duration="4" state="yyyrrrrrr"/>
        <phase duration="31" state="rrrGGGrrr"/>
        <phase duration="4" state="rrryyyrrr"/>
    </tlLogic>
    <tlLogic id="65284119" type="static" programID="0" offset="0">
        <phase duration="31" state="rrrGGgGGG"/>
        <phase duration="4" state="rrryygyyy"/>
        <phase duration="6" state="rrrrrGrrr"/>
        <phase duration="4" state="rrrrryrrr"/>
        <phase duration="31" state="GGGrrrrrr"/>
        <phase duration="4" state="yyyrrrrrr"/>
    </tlLogic>
    <tlLogic id="65284511" type="static" programID="0" offset="0">
        <phase duration="31" state="rrrGGGgggrrrr"/>
        <phase duration="4" state="rrryyygggrrrr"/>
        <phase duration="6" state="rrrrrrGGGrrrr"/>
        <phase duration="4" state="rrrrrryyyrrrr"/>
        <phase duration="31" state="gggrrrrrrGGGG"/>
        <phase duration="4" state="gggrrrrrryyyy"/>
        <phase duration="6" state="GGGrrrrrrrrrr"/>
        <phase duration="4" state="yyyrrrrrrrrrr"/>
    </tlLogic>
    <tlLogic id="65284950" type="static" programID="0" offset="0">
        <phase duration="31" state="rrrGGgg"/>
        <phase duration="4" state="rrryygg"/>
        <phase duration="6" state="rrrrrGG"/>
        <phase duration="4" state="rrrrryy"/>
        <phase duration="31" state="GGGrrrr"/>
        <phase duration="4" state="yyyrrrr"/>
    </tlLogic>
    <tlLogic id="65284974" type="static" programID="0" offset="0">
        <phase duration="31" state="rrrGgGG"/>
        <phase duration="4" state="rrrygyy"/>
        <phase duration="6" state="rrrrGrr"/>
        <phase duration="4" state="rrrryrr"/>
        <phase duration="31" state="GGGrrrr"/>
        <phase duration="4" state="yyyrrrr"/>
    </tlLogic>
    <tlLogic id="65285239" type="static" programID="0" offset="0">
        <phase duration="31" state="GGGrrrGgrrr"/>
        <phase duration="4" state="yyyrrrygrrr"/>
        <phase duration="6" state="rrrrrrrGrrr"/>
        <phase duration="4" state="rrrrrrryrrr"/>
        <phase duration="31" state="rrrGGgrrGgg"/>
        <phase duration="4" state="rrryygrrygg"/>
        <phase duration="6" state="rrrrrGrrrGG"/>
        <phase duration="4" state="rrrrryrrryy"/>
    </tlLogic>
    <tlLogic id="65285506" type="static" programID="0" offset="0">
        <phase duration="31" state="GG"/>
        <phase duration="5" state="yy"/>
    </tlLogic>
    <tlLogic id="65286866" type="static" programID="0" offset="0">
        <phase duration="31" state="G"/>
        <phase duration="9" state="y"/>
        <phase duration="31" state="G"/>
        <phase duration="9" state="y"/>
    </tlLogic>
    <tlLogic id="65286991" type="static" programID="0" offset="0">
        <phase duration="31" state="rrrGGgrrrGGg"/>
        <phase duration="4" state="rrryygrrryyg"/>
        <phase duration="6" state="rrrrrGrrrrrG"/>
        <phase duration="4" state="rrrrryrrrrry"/>
        <phase duration="31" state="GGgrrrGGgrrr"/>
        <phase duration="4" state="yygrrryygrrr"/>
        <phase duration="6" state="rrGrrrrrGrrr"/>
        <phase duration="4" state="rryrrrrryrrr"/>
    </tlLogic>
    <tlLogic id="65287111" type="static" programID="0" offset="0">
        <phase duration="31" state="GGrG"/>
        <phase duration="4" state="yyry"/>
        <phase duration="31" state="GrGG"/>
        <phase duration="4" state="yryy"/>
    </tlLogic>
    <tlLogic id="65287216" type="static" programID="0" offset="0">
        <phase duration="31" state="GGgrrrGGgrrr"/>
        <phase duration="4" state="yygrrryygrrr"/>
        <phase duration="6" state="rrGrrrrrGrrr"/>
        <phase duration="4" state="rryrrrrryrrr"/>
        <phase duration="31" state="rrrGGgrrrGGg"/>
        <phase duration="4" state="rrryygrrryyg"/>
        <phase duration="6" state="rrrrrGrrrrrG"/>
        <phase duration="4" state="rrrrryrrrrry"/>
    </tlLogic>
    <tlLogic id="65287261" type="static" programID="0" offset="0">
        <phase duration="31" state="rrrGGGrrrGG"/>
        <phase duration="5" state="rrryyyrrryy"/>
        <phase duration="31" state="GGgrrrGGgGr"/>
        <phase duration="5" state="yygrrryygyr"/>
        <phase duration="6" state="rrGrrrrrGrr"/>
        <phase duration="5" state="rryrrrrryrr"/>
    </tlLogic>
    <tlLogic id="65287324" type="static" programID="0" offset="0">
        <phase duration="31" state="GGgrrrGGgrrr"/>
        <phase duration="5" state="yygrrryygrrr"/>
        <phase duration="6" state="rrGrrrrrGrrr"/>
        <phase duration="5" state="rryrrrrryrrr"/>
        <phase duration="31" state="rrrGGgrrrGGg"/>
        <phase duration="5" state="rrryygrrryyg"/>
        <phase duration="6" state="rrrrrGrrrrrG"/>
        <phase duration="5" state="rrrrryrrrrry"/>
    </tlLogic>
    <tlLogic id="65287360" type="static" programID="0" offset="0">
        <phase duration="31" state="GGGgrrrrGGGgrrr"/>
        <phase duration="4" state="yyygrrrryyygrrr"/>
        <phase duration="6" state="rrrGrrrrrrrGrrr"/>
        <phase duration="4" state="rrryrrrrrrryrrr"/>
        <phase duration="31" state="rrrrGGggrrrrGGg"/>
        <phase duration="4" state="rrrryyggrrrryyg"/>
        <phase duration="6" state="rrrrrrGGrrrrrrG"/>
        <phase duration="4" state="rrrrrryyrrrrrry"/>
    </tlLogic>
    <tlLogic id="65287402" type="static" programID="0" offset="0">
        <phase duration="31" state="GGggrrrrGGGGgrrrr"/>
        <phase duration="4" state="yyggrrrryyyygrrrr"/>
        <phase duration="6" state="rrGGrrrrrrrrGrrrr"/>
        <phase duration="4" state="rryyrrrrrrrryrrrr"/>
        <phase duration="31" state="rrrrGGggrrrrrGGGg"/>
        <phase duration="4" state="rrrryyggrrrrryyyg"/>
        <phase duration="6" state="rrrrrrGGrrrrrrrrG"/>
        <phase duration="4" state="rrrrrryyrrrrrrrry"/>
    </tlLogic>
    <tlLogic id="65287674" type="static" programID="0" offset="0">
        <phase duration="31" state="rrrGGgrrrGGg"/>
        <phase duration="4" state="rrryygrrryyg"/>
        <phase duration="6" state="rrrrrGrrrrrG"/>
        <phase duration="4" state="rrrrryrrrrry"/>
        <phase duration="31" state="GGgrrrGGgrrr"/>
        <phase duration="4" state="yygrrryygrrr"/>
        <phase duration="6" state="rrGrrrrrGrrr"/>
        <phase duration="4" state="rryrrrrryrrr"/>
    </tlLogic>
    <tlLogic id="65288844" type="static" programID="0" offset="0">
        <phase duration="31" state="rrrGGgrrrGGg"/>
        <phase duration="4" state="rrryygrrryyg"/>
        <phase duration="6" state="rrrrrGrrrrrG"/>
        <phase duration="4" state="rrrrryrrrrry"/>
        <phase duration="31" state="GGgrrrGGgrrr"/>
        <phase duration="4" state="yygrrryygrrr"/>
        <phase duration="6" state="rrGrrrrrGrrr"/>
        <phase duration="4" state="rryrrrrryrrr"/>
    </tlLogic>
    <tlLogic id="65288850" type="static" programID="0" offset="0">
        <phase duration="31" state="GGgrrGGgrr"/>
        <phase duration="4" state="yygrryygrr"/>
        <phase duration="6" state="rrGrrrrGrr"/>
        <phase duration="4" state="rryrrrryrr"/>
        <phase duration="31" state="rrrGGrrrGG"/>
        <phase duration="4" state="rrryyrrryy"/>
    </tlLogic>
    <tlLogic id="65288855" type="static" programID="0" offset="0">
        <phase duration="31" state="rrrGGgrrrGGg"/>
        <phase duration="4" state="rrryygrrryyg"/>
        <phase duration="6" state="rrrrrGrrrrrG"/>
        <phase duration="4" state="rrrrryrrrrry"/>
        <phase duration="31" state="GGgrrrGGgrrr"/>
        <phase duration="4" state="yygrrryygrrr"/>
        <phase duration="6" state="rrGrrrrrGrrr"/>
        <phase duration="4" state="rryrrrrryrrr"/>
    </tlLogic>
    <tlLogic id="65289075" type="static" programID="0" offset="0">
        <phase duration="31" state="GGrrGG"/>
        <phase duration="4" state="yyrryy"/>
        <phase duration="31" state="rrGGrr"/>
        <phase duration="4" state="rryyrr"/>
    </tlLogic>
    <tlLogic id="65289310" type="static" programID="0" offset="0">
        <phase duration="31" state="GgrrGG"/>
        <phase duration="4" state="ygrryy"/>
        <phase duration="6" state="rGrrrr"/>
        <phase duration="4" state="ryrrrr"/>
        <phase duration="31" state="rrGGGr"/>
        <phase duration="4" state="rryyyr"/>
    </tlLogic>
    <tlLogic id="65289367" type="static" programID="0" offset="0">
        <phase duration="31" state="rrrGGgrrrGGg"/>
        <phase duration="4" state="rrryygrrryyg"/>
        <phase duration="6" state="rrrrrGrrrrrG"/>
        <phase duration="4" state="rrrrryrrrrry"/>
        <phase duration="31" state="GGgrrrGGgrrr"/>
        <phase duration="4" state="yygrrryygrrr"/>
        <phase duration="6" state="rrGrrrrrGrrr"/>
        <phase duration="4" state="rryrrrrryrrr"/>
    </tlLogic>
    <tlLogic id="65290184" type="static" programID="0" offset="0">
        <phase duration="31" state="GGGgrr"/>
        <phase duration="4" state="yyygrr"/>
        <phase duration="6" state="rrrGrr"/>
        <phase duration="4" state="rrryrr"/>
        <phase duration="31" state="GrrrGG"/>
        <phase duration="4" state="yrrryy"/>
    </tlLogic>
    <tlLogic id="65290185" type="static" programID="0" offset="0">
        <phase duration="31" state="rrrrGGggrrrrrrrrGGGg"/>
        <phase duration="4" state="rrrryyggrrrrrrrryyyg"/>
        <phase duration="6" state="rrrrrrGGrrrrrrrrrrrG"/>
        <phase duration="4" state="rrrrrryyrrrrrrrrrrry"/>
        <phase duration="31" state="GGggrrrrrrrrGGgGrrrr"/>
        <phase duration="4" state="yyggrrrrrrrryygyrrrr"/>
        <phase duration="6" state="rrGGrrrrrrrrrrGrrrrr"/>
        <phase duration="4" state="rryyrrrrrrrrrryrrrrr"/>
        <phase duration="31" state="rrrrrrrrGGGGrrrGrrrr"/>
        <phase duration="4" state="rrrrrrrryyyyrrryrrrr"/>
    </tlLogic>
    <tlLogic id="65290211" type="static" programID="0" offset="0">
        <phase duration="31" state="GGGrrrGG"/>
        <phase duration="4" state="yyyrrryy"/>
        <phase duration="31" state="GrrGGGrr"/>
        <phase duration="4" state="yrryyyrr"/>
    </tlLogic>
    <tlLogic id="65290217" type="static" programID="0" offset="0">
        <phase duration="31" state="GGrG"/>
        <phase duration="4" state="yyry"/>
        <phase duration="31" state="GrGG"/>
        <phase duration="4" state="yryy"/>
    </tlLogic>
    <tlLogic id="65290267" type="static" programID="0" offset="0">
        <phase duration="31" state="rrrGGGgrrrrGGgg"/>
        <phase duration="4" state="rrryyygrrrryygg"/>
        <phase duration="6" state="rrrrrrGrrrrrrGG"/>
        <phase duration="4" state="rrrrrryrrrrrryy"/>
        <phase duration="31" state="GGGrrrrGGggrrrr"/>
        <phase duration="4" state="yyyrrrryyggrrrr"/>
        <phase duration="6" state="rrrrrrrrrGGrrrr"/>
        <phase duration="4" state="rrrrrrrrryyrrrr"/>
    </tlLogic>
    <tlLogic id="65290322" type="static" programID="0" offset="0">
        <phase duration="31" state="rrrGGgrrrGGg"/>
        <phase duration="4" state="rrryygrrryyg"/>
        <phase duration="6" state="rrrrrGrrrrrG"/>
        <phase duration="4" state="rrrrryrrrrry"/>
        <phase duration="31" state="GGgrrrGGgrrr"/>
        <phase duration="4" state="yygrrryygrrr"/>
        <phase duration="6" state="rrGrrrrrGrrr"/>
        <phase duration="4" state="rryrrrrryrrr"/>
    </tlLogic>
    <tlLogic id="65290335" type="static" programID="0" offset="0">
        <phase duration="31" state="rrrGGgrrrGGg"/>
        <phase duration="4" state="rrryygrrryyg"/>
        <phase duration="6" state="rrrrrGrrrrrG"/>
        <phase duration="4" state="rrrrryrrrrry"/>
        <phase duration="31" state="GGgrrrGGgrrr"/>
        <phase duration="4" state="yygrrryygrrr"/>
        <phase duration="6" state="rrGrrrrrGrrr"/>
        <phase duration="4" state="rryrrrrryrrr"/>
    </tlLogic>
    <tlLogic id="65291160" type="static" programID="0" offset="0">
        <phase duration="31" state="rrrGGGgrrrGGGg"/>
        <phase duration="4" state="rrryyygrrryyyg"/>
        <phase duration="6" state="rrrrrrGrrrrrrG"/>
        <phase duration="4" state="rrrrrryrrrrrry"/>
        <phase duration="31" state="GGgrrrrGGgrrrr"/>
        <phase duration="4" state="yygrrrryygrrrr"/>
        <phase duration="6" state="rrGrrrrrrGrrrr"/>
        <phase duration="4" state="rryrrrrrryrrrr"/>
    </tlLogic>
    <tlLogic id="65291184" type="static" programID="0" offset="0">
        <phase duration="31" state="rrGGGGGg"/>
        <phase duration="4" state="rryyyyyg"/>
        <phase duration="6" state="rrrrrrrG"/>
        <phase duration="4" state="rrrrrrry"/>
        <phase duration="31" state="GGGrrrrr"/>
        <phase duration="4" state="yyyrrrrr"/>
    </tlLogic>
    <tlLogic id="65291491" type="static" programID="0" offset="0">
        <phase duration="31" state="GgrrGG"/>
        <phase duration="4" state="ygrryy"/>
        <phase duration="6" state="rGrrrr"/>
        <phase duration="4" state="ryrrrr"/>
        <phase duration="31" state="rrGGGr"/>
        <phase duration="4" state="rryyyr"/>
    </tlLogic>
    <tlLogic id="65292463" type="static" programID="0" offset="0">
        <phase duration="31" state="rrGGGGGg"/>
        <phase duration="4" state="rryyyyyg"/>
        <phase duration="6" state="rrrrrrrG"/>
        <phase duration="4" state="rrrrrrry"/>
        <phase duration="31" state="GGGrrrrr"/>
        <phase duration="4" state="yyyrrrrr"/>
    </tlLogic>
    <tlLogic id="65292695" type="static" programID="0" offset="0">
        <phase duration="31" state="GGrrrGg"/>
        <phase duration="4" state="yyrrryg"/>
        <phase duration="6" state="rrrrrrG"/>
        <phase duration="4" state="rrrrrry"/>
        <phase duration="31" state="rrGGGrr"/>
        <phase duration="4" state="rryyyrr"/>
    </tlLogic>
    <tlLogic id="65292699" type="static" programID="0" offset="0">
        <phase duration="31" state="rrrGgGG"/>
        <phase duration="4" state="rrrygyy"/>
        <phase duration="6" state="rrrrGrr"/>
        <phase duration="4" state="rrrryrr"/>
        <phase duration="31" state="GGGrrrr"/>
        <phase duration="4" state="yyyrrrr"/>
    </tlLogic>
    <tlLogic id="65292734" type="static" programID="0" offset="0">
        <phase duration="31" state="GGGgrr"/>
        <phase duration="4" state="yyygrr"/>
        <phase duration="6" state="rrrGrr"/>
        <phase duration="4" state="rrryrr"/>
        <phase duration="31" state="GrrrGG"/>
        <phase duration="4" state="yrrryy"/>
    </tlLogic>
    <tlLogic id="65292736" type="static" programID="0" offset="0">
        <phase duration="31" state="GGrrrGg"/>
        <phase duration="4" state="yyrrryg"/>
        <phase duration="6" state="rrrrrrG"/>
        <phase duration="4" state="rrrrrry"/>
        <phase duration="31" state="rrGGGrr"/>
        <phase duration="4" state="rryyyrr"/>
    </tlLogic>
    <tlLogic id="65292738" type="static" programID="0" offset="0">
        <phase duration="31" state="rrrGgGG"/>
        <phase duration="4" state="rrrygyy"/>
        <phase duration="6" state="rrrrGrr"/>
        <phase duration="4" state="rrrryrr"/>
        <phase duration="31" state="GGGrrrr"/>
        <phase duration="4" state="yyyrrrr"/>
    </tlLogic>
    <tlLogic id="65293195" type="static" programID="0" offset="0">
        <phase duration="31" state="GgGrGG"/>
        <phase duration="4" state="ygyryy"/>
        <phase duration="6" state="rGrrrr"/>
        <phase duration="4" state="ryrrrr"/>
        <phase duration="31" state="GrGGGr"/>
        <phase duration="4" state="yryyyr"/>
    </tlLogic>
    <tlLogic id="65293593" type="static" programID="0" offset="0">
        <phase duration="31" state="GGgrrrGGgrrr"/>
        <phase duration="4" state="yygrrryygrrr"/>
        <phase duration="6" state="rrGrrrrrGrrr"/>